
**** 01/08/21 15:24:47 ****** PSpice Lite (October 2012) ****** ID# 10813 ****

 ** Profile: "SCHEMATIC1-simulation"  [ F:\Users\Mavioux\Orcad Projects\telestikos enisxyths-pspicefiles\schematic1\simulation.sim ] 


 ****     CIRCUIT DESCRIPTION


******************************************************************************




** Creating circuit file "simulation.cir" 
** WARNING: THIS AUTOMATICALLY GENERATED FILE MAY BE OVERWRITTEN BY SUBSEQUENT SIMULATIONS

*Libraries: 
* Profile Libraries :
* Local Libraries :
.LIB "../../../telestikos enisxyths-pspicefiles/telestikos enisxyths.lib" 
* From [PSPICE NETLIST] section of F:\CADENCE\WORKING DIRECTORY\cdssetup\OrCAD_PSpice/16.6.0/PSpice.ini file:
.lib "nomd.lib" 

*Analysis directives: 
.TRAN  0 4200us 0 SKIPBP 
.OPTIONS ADVCONV
.PROBE64 V(alias(*)) I(alias(*)) W(alias(*)) D(alias(*)) NOISE(alias(*)) 
.INC "..\SCHEMATIC1.net" 



**** INCLUDING SCHEMATIC1.net ****
* source TELESTIKOS ENISXYTHS
C_Cc         N00280 N00657  1.67p  TC=0,0 
V_Vss         0 N00835 2.094Vdc
V_Vdd         N00454 0 2.094Vdc
C_CL         0 N00657  2.0198p  TC=0,0 
M_M4         N00280 N00238 N00454 N00454 pfet1  
+ L=1u  
+ W=3u         
M_M6         N00657 N00280 N00454 N00454 pfet1  
+ L=1u  
+ W=8u         
M_M3         N00238 N00238 N00454 N00454 pfet1  
+ L=1u  
+ W=3u         
M_M1         N00238 0 N00212 N00212 nfet1  
+ L=1u  
+ W=3u         
M_M2         N00280 N00617 N00212 N00212 nfet1  
+ L=1u  
+ W=3u         
M_M7         N00657 N00505 N00835 N00835 nfet1  
+ L=1u  
+ W=1.05u         
M_M5         N00212 N00505 N00835 N00835 nfet1  
+ L=1u  
+ W=1u         
I_Iref         N00454 N00505 DC 30uAdc  
M_M8         N00505 N00505 N00835 N00835 nfet1  
+ L=1u  
+ W=1u         
V_V2         0 N00617 DC 0Vdc AC 0.1Vac 
M_M15         N22683 N22653 N22729 N22729 nfet1  
+ L=1u  
+ W=1.05u         
C_Cc1         N22629 N22683  1.67p  TC=0,0 
M_M12         N22625 N22625 N22637 N22637 pfet1  
+ L=1u  
+ W=3u         
V_Vdd1         N22637 0 2.094Vdc
M_M13         N22625 N22683 N22615 N22615 nfet1  
+ L=1u  
+ W=3u         
M_M9         N22653 N22653 N22729 N22729 nfet1  
+ L=1u  
+ W=1u         
M_M11         N22683 N22629 N22637 N22637 pfet1  
+ L=1u  
+ W=8u         
M_M14         N22629 N22689 N22615 N22615 nfet1  
+ L=1u  
+ W=3u         
M_M10         N22629 N22625 N22637 N22637 pfet1  
+ L=1u  
+ W=3u         
C_CL1         0 N22683  2.0198p  TC=0,0 
V_Vss1         0 N22729 2.094Vdc
M_M16         N22615 N22653 N22729 N22729 nfet1  
+ L=1u  
+ W=1u         
V_V3         N22689 0  
+PULSE 0 1 0 1n 1n 20u 40u
M_M17         N29172 N29172 N22637 N22637 pfet1  
+ L=1u  
+ W=0.5u         
R_R1         N22729 N29172  1k TC=0,0 
M_M18         N22653 N29172 N292571 N292571 pfet1  
+ L=1u  
+ W=0.5u         
R_R2         N292571 N22637  16k TC=0,0 

**** RESUMING simulation.cir ****
.END

**** 01/08/21 15:24:47 ****** PSpice Lite (October 2012) ****** ID# 10813 ****

 ** Profile: "SCHEMATIC1-simulation"  [ F:\Users\Mavioux\Orcad Projects\telestikos enisxyths-pspicefiles\schematic1\simulation.sim ] 


 ****     MOSFET MODEL PARAMETERS


******************************************************************************




               pfet1           nfet1           
               PMOS            NMOS            
       LEVEL    3               3            
         TPG   -1                            
           L  100.000000E-06  100.000000E-06 
           W  100.000000E-06  100.000000E-06 
          LD   22.000000E-09  164.700000E-09 
         VTO    -.9056           .786        
          KP   29.352000E-06   96.379000E-06 
       GAMMA     .4863           .5863       
         PHI     .6              .6          
      LAMBDA    0               0            
         RSH  104.7            85.45         
          IS   10.000000E-15   10.000000E-15 
          JS    0               0            
          PB     .85             .8          
        PBSW     .85             .8          
          CJ  484.470000E-06  385.410000E-06 
        CJSW  164.570000E-12  139.400000E-12 
          MJ     .5027          1.1854       
        MJSW     .217168         .125195     
        CGSO   53.752000E-12  402.410000E-12 
        CGDO   53.752000E-12  402.410000E-12 
        CGBO  336.500000E-12  361.440000E-12 
        NSUB   18.900000E+15   16.160000E+15 
         NFS    3.460000E+12    5.000000E+12 
         TOX   21.200000E-09   21.200000E-09 
          XJ  200.000000E-09  200.000000E-09 
          UO  180.2           591.7          
       UCRIT   10.000000E+03   10.000000E+03 
        VMAX  373.200000E+03  208.200000E+03 
       DELTA    1.52             .6967       
       THETA     .1248           .08122      
         ETA     .1641           .07066      
       KAPPA    9.694            .1396       
      DIOMOD    1               1            
         VFB    0               0            
        LETA    0               0            
        WETA    0               0            
          U0    0               0            
        TEMP    0               0            
         VDD    5               5            
       XPART    0               0            



          JOB CONCLUDED

**** 01/08/21 15:24:47 ****** PSpice Lite (October 2012) ****** ID# 10813 ****

 ** Profile: "SCHEMATIC1-simulation"  [ F:\Users\Mavioux\Orcad Projects\telestikos enisxyths-pspicefiles\schematic1\simulation.sim ] 


 ****     JOB STATISTICS SUMMARY


******************************************************************************



  Total job time (using Solver 1)   =        1.02
