
**** 12/14/20 04:30:42 ****** PSpice Lite (October 2012) ****** ID# 10813 ****

 ** Profile: "SCHEMATIC1-ac sweer"  [ F:\Users\Mavioux\Orcad Projects\telestikos enisxyths-PSpiceFiles\SCHEMATIC1\ac sweer.sim ] 


 ****     CIRCUIT DESCRIPTION


******************************************************************************




** Creating circuit file "ac sweer.cir" 
** WARNING: THIS AUTOMATICALLY GENERATED FILE MAY BE OVERWRITTEN BY SUBSEQUENT SIMULATIONS

*Libraries: 
* Profile Libraries :
* Local Libraries :
.LIB "../../../telestikos enisxyths-pspicefiles/telestikos enisxyths.lib" 
* From [PSPICE NETLIST] section of F:\CADENCE\WORKING DIRECTORY\cdssetup\OrCAD_PSpice/16.6.0/PSpice.ini file:
.lib "nomd.lib" 

*Analysis directives: 
.AC DEC 100 0.1 1g
.OPTIONS ADVCONV
.PROBE64 V(alias(*)) I(alias(*)) W(alias(*)) D(alias(*)) NOISE(alias(*)) 
.INC "..\SCHEMATIC1.net" 



**** INCLUDING SCHEMATIC1.net ****
* source TELESTIKOS ENISXYTHS
C_Cc         N00280 N00657  1.67p  TC=0,0 
V_Vss         0 N00835 2.094Vdc
V_Vdd         N00454 0 2.094Vdc
C_CL         0 N00657  2.0198p  TC=0,0 
M_M4         N00280 N00238 N00454 N00454 pfet1  
+ L=1u  
+ W=1u         
M_M6         N00657 N00280 N00454 N00454 pfet1  
+ L=1u  
+ W=3.91u         
M_M3         N00238 N00238 N00454 N00454 pfet1  
+ L=1u  
+ W=1u         
M_M1         N00238 0 N00212 N00212 nfet1  
+ L=1u  
+ W=1u         
M_M2         N00280 N00617 N00212 N00212 nfet1  
+ L=1u  
+ W=1u         
M_M7         N00657 N00505 N00835 N00835 nfet1  
+ L=1u  
+ W=1.05u         
M_M5         N00212 N00505 N00835 N00835 nfet1  
+ L=1u  
+ W=1u         
I_Iref         N00454 N00505 DC 30uAdc  
M_M8         N00505 N00505 N00835 N00835 nfet1  
+ L=1u  
+ W=1u         
V_V1         M_UN0001 M_UN0002  
+PULSE 1 0 4u 
V_V2         N00617 0 DC 0Vdc AC 0.1Vac 

**** RESUMING "ac sweer.cir" ****
.END

ERROR(ORPSIM-15141): Less than 2 connections at node M_UN0001.

ERROR(ORPSIM-15141): Less than 2 connections at node M_UN0002.

ERROR(ORPSIM-15142): Node M_UN0001 is floating

ERROR(ORPSIM-15142): Node M_UN0002 is floating
